PDE 1999 01 01 00 00 00.00 67000 67000 -25000 4.2 4.2 hom_explosion
event name:       homog_test
time shift:     0.0000
half-duration    1000000
latorUTM:       0.000128
longorUTM:      .00040000000000000000
depth:          -.00040000000000000000
Mrr:   1.d0
Mtt:   1.d0
Mpp:   1.d0
Mrt:   0.d0
Mrp:   0.d0
Mtp:   0.d0
PDE 1999 01 01 00 00 00.00 67000 67000 -25000 4.2 4.2 hom_explosion
event name:       homog_test
time shift:     0.0000
half-duration    1000000
latorUTM:       0.000128
longorUTM:      .00120000000000000000
depth:          -.00040000000000000000
Mrr:   1.d0
Mtt:   1.d0
Mpp:   1.d0
Mrt:   0.d0
Mrp:   0.d0
Mtp:   0.d0
PDE 1999 01 01 00 00 00.00 67000 67000 -25000 4.2 4.2 hom_explosion
event name:       homog_test
time shift:     0.0000
half-duration    1000000
latorUTM:       0.000128
longorUTM:      .00200000000000000000
depth:          -.00040000000000000000
Mrr:   1.d0
Mtt:   1.d0
Mpp:   1.d0
Mrt:   0.d0
Mrp:   0.d0
Mtp:   0.d0
PDE 1999 01 01 00 00 00.00 67000 67000 -25000 4.2 4.2 hom_explosion
event name:       homog_test
time shift:     0.0000
half-duration    1000000
latorUTM:       0.000128
longorUTM:      .00280000000000000000
depth:          -.00040000000000000000
Mrr:   1.d0
Mtt:   1.d0
Mpp:   1.d0
Mrt:   0.d0
Mrp:   0.d0
Mtp:   0.d0
PDE 1999 01 01 00 00 00.00 67000 67000 -25000 4.2 4.2 hom_explosion
event name:       homog_test
time shift:     0.0000
half-duration    1000000
latorUTM:       0.000128
longorUTM:      .00360000000000000000
depth:          -.00040000000000000000
Mrr:   1.d0
Mtt:   1.d0
Mpp:   1.d0
Mrt:   0.d0
Mrp:   0.d0
Mtp:   0.d0
PDE 1999 01 01 00 00 00.00 67000 67000 -25000 4.2 4.2 hom_explosion
event name:       homog_test
time shift:     0.0000
half-duration    1000000
latorUTM:       0.000128
longorUTM:      .00440000000000000000
depth:          -.00040000000000000000
Mrr:   1.d0
Mtt:   1.d0
Mpp:   1.d0
Mrt:   0.d0
Mrp:   0.d0
Mtp:   0.d0
PDE 1999 01 01 00 00 00.00 67000 67000 -25000 4.2 4.2 hom_explosion
event name:       homog_test
time shift:     0.0000
half-duration    1000000
latorUTM:       0.000128
longorUTM:      .00520000000000000000
depth:          -.00040000000000000000
Mrr:   1.d0
Mtt:   1.d0
Mpp:   1.d0
Mrt:   0.d0
Mrp:   0.d0
Mtp:   0.d0
PDE 1999 01 01 00 00 00.00 67000 67000 -25000 4.2 4.2 hom_explosion
event name:       homog_test
time shift:     0.0000
half-duration    1000000
latorUTM:       0.000128
longorUTM:      .00600000000000000000
depth:          -.00040000000000000000
Mrr:   1.d0
Mtt:   1.d0
Mpp:   1.d0
Mrt:   0.d0
Mrp:   0.d0
Mtp:   0.d0
PDE 1999 01 01 00 00 00.00 67000 67000 -25000 4.2 4.2 hom_explosion
event name:       homog_test
time shift:     0.0000
half-duration    1000000
latorUTM:       0.000128
longorUTM:      .00680000000000000000
depth:          -.00040000000000000000
Mrr:   1.d0
Mtt:   1.d0
Mpp:   1.d0
Mrt:   0.d0
Mrp:   0.d0
Mtp:   0.d0
PDE 1999 01 01 00 00 00.00 67000 67000 -25000 4.2 4.2 hom_explosion
event name:       homog_test
time shift:     0.0000
half-duration    1000000
latorUTM:       0.000128
longorUTM:      .00760000000000000000
depth:          -.00040000000000000000
Mrr:   1.d0
Mtt:   1.d0
Mpp:   1.d0
Mrt:   0.d0
Mrp:   0.d0
Mtp:   0.d0
PDE 1999 01 01 00 00 00.00 67000 67000 -25000 4.2 4.2 hom_explosion
event name:       homog_test
time shift:     0.0000
half-duration    1000000
latorUTM:       0.000128
longorUTM:      .00840000000000000000
depth:          -.00040000000000000000
Mrr:   1.d0
Mtt:   1.d0
Mpp:   1.d0
Mrt:   0.d0
Mrp:   0.d0
Mtp:   0.d0
PDE 1999 01 01 00 00 00.00 67000 67000 -25000 4.2 4.2 hom_explosion
event name:       homog_test
time shift:     0.0000
half-duration    1000000
latorUTM:       0.000128
longorUTM:      .00920000000000000000
depth:          -.00040000000000000000
Mrr:   1.d0
Mtt:   1.d0
Mpp:   1.d0
Mrt:   0.d0
Mrp:   0.d0
Mtp:   0.d0
PDE 1999 01 01 00 00 00.00 67000 67000 -25000 4.2 4.2 hom_explosion
event name:       homog_test
time shift:     0.0000
half-duration    1000000
latorUTM:       0.000128
longorUTM:      .01000000000000000000
depth:          -.00040000000000000000
Mrr:   1.d0
Mtt:   1.d0
Mpp:   1.d0
Mrt:   0.d0
Mrp:   0.d0
Mtp:   0.d0
PDE 1999 01 01 00 00 00.00 67000 67000 -25000 4.2 4.2 hom_explosion
event name:       homog_test
time shift:     0.0000
half-duration    1000000
latorUTM:       0.000128
longorUTM:      .01080000000000000000
depth:          -.00040000000000000000
Mrr:   1.d0
Mtt:   1.d0
Mpp:   1.d0
Mrt:   0.d0
Mrp:   0.d0
Mtp:   0.d0
PDE 1999 01 01 00 00 00.00 67000 67000 -25000 4.2 4.2 hom_explosion
event name:       homog_test
time shift:     0.0000
half-duration    1000000
latorUTM:       0.000128
longorUTM:      .01160000000000000000
depth:          -.00040000000000000000
Mrr:   1.d0
Mtt:   1.d0
Mpp:   1.d0
Mrt:   0.d0
Mrp:   0.d0
Mtp:   0.d0
PDE 1999 01 01 00 00 00.00 67000 67000 -25000 4.2 4.2 hom_explosion
event name:       homog_test
time shift:     0.0000
half-duration    1000000
latorUTM:       0.000128
longorUTM:      .01240000000000000000
depth:          -.00040000000000000000
Mrr:   1.d0
Mtt:   1.d0
Mpp:   1.d0
Mrt:   0.d0
Mrp:   0.d0
Mtp:   0.d0
PDE 1999 01 01 00 00 00.00 67000 67000 -25000 4.2 4.2 hom_explosion
event name:       homog_test
time shift:     0.0000
half-duration    1000000
latorUTM:       0.000128
longorUTM:      .01320000000000000000
depth:          -.00040000000000000000
Mrr:   1.d0
Mtt:   1.d0
Mpp:   1.d0
Mrt:   0.d0
Mrp:   0.d0
Mtp:   0.d0
PDE 1999 01 01 00 00 00.00 67000 67000 -25000 4.2 4.2 hom_explosion
event name:       homog_test
time shift:     0.0000
half-duration    1000000
latorUTM:       0.000128
longorUTM:      .01400000000000000000
depth:          -.00040000000000000000
Mrr:   1.d0
Mtt:   1.d0
Mpp:   1.d0
Mrt:   0.d0
Mrp:   0.d0
Mtp:   0.d0
PDE 1999 01 01 00 00 00.00 67000 67000 -25000 4.2 4.2 hom_explosion
event name:       homog_test
time shift:     0.0000
half-duration    1000000
latorUTM:       0.000128
longorUTM:      .01480000000000000000
depth:          -.00040000000000000000
Mrr:   1.d0
Mtt:   1.d0
Mpp:   1.d0
Mrt:   0.d0
Mrp:   0.d0
Mtp:   0.d0
PDE 1999 01 01 00 00 00.00 67000 67000 -25000 4.2 4.2 hom_explosion
event name:       homog_test
time shift:     0.0000
half-duration    1000000
latorUTM:       0.000128
longorUTM:      .01560000000000000000
depth:          -.00040000000000000000
Mrr:   1.d0
Mtt:   1.d0
Mpp:   1.d0
Mrt:   0.d0
Mrp:   0.d0
Mtp:   0.d0
PDE 1999 01 01 00 00 00.00 67000 67000 -25000 4.2 4.2 hom_explosion
event name:       homog_test
time shift:     0.0000
half-duration    1000000
latorUTM:       0.000128
longorUTM:      .01640000000000000000
depth:          -.00040000000000000000
Mrr:   1.d0
Mtt:   1.d0
Mpp:   1.d0
Mrt:   0.d0
Mrp:   0.d0
Mtp:   0.d0
PDE 1999 01 01 00 00 00.00 67000 67000 -25000 4.2 4.2 hom_explosion
event name:       homog_test
time shift:     0.0000
half-duration    1000000
latorUTM:       0.000128
longorUTM:      .01720000000000000000
depth:          -.00040000000000000000
Mrr:   1.d0
Mtt:   1.d0
Mpp:   1.d0
Mrt:   0.d0
Mrp:   0.d0
Mtp:   0.d0
PDE 1999 01 01 00 00 00.00 67000 67000 -25000 4.2 4.2 hom_explosion
event name:       homog_test
time shift:     0.0000
half-duration    1000000
latorUTM:       0.000128
longorUTM:      .01800000000000000000
depth:          -.00040000000000000000
Mrr:   1.d0
Mtt:   1.d0
Mpp:   1.d0
Mrt:   0.d0
Mrp:   0.d0
Mtp:   0.d0
PDE 1999 01 01 00 00 00.00 67000 67000 -25000 4.2 4.2 hom_explosion
event name:       homog_test
time shift:     0.0000
half-duration    1000000
latorUTM:       0.000128
longorUTM:      .01880000000000000000
depth:          -.00040000000000000000
Mrr:   1.d0
Mtt:   1.d0
Mpp:   1.d0
Mrt:   0.d0
Mrp:   0.d0
Mtp:   0.d0
PDE 1999 01 01 00 00 00.00 67000 67000 -25000 4.2 4.2 hom_explosion
event name:       homog_test
time shift:     0.0000
half-duration    1000000
latorUTM:       0.000128
longorUTM:      .01960000000000000000
depth:          -.00040000000000000000
Mrr:   1.d0
Mtt:   1.d0
Mpp:   1.d0
Mrt:   0.d0
Mrp:   0.d0
Mtp:   0.d0
PDE 1999 01 01 00 00 00.00 67000 67000 -25000 4.2 4.2 hom_explosion
event name:       homog_test
time shift:     0.0000
half-duration    1000000
latorUTM:       0.000128
longorUTM:      .02040000000000000000
depth:          -.00040000000000000000
Mrr:   1.d0
Mtt:   1.d0
Mpp:   1.d0
Mrt:   0.d0
Mrp:   0.d0
Mtp:   0.d0
PDE 1999 01 01 00 00 00.00 67000 67000 -25000 4.2 4.2 hom_explosion
event name:       homog_test
time shift:     0.0000
half-duration    1000000
latorUTM:       0.000128
longorUTM:      .02120000000000000000
depth:          -.00040000000000000000
Mrr:   1.d0
Mtt:   1.d0
Mpp:   1.d0
Mrt:   0.d0
Mrp:   0.d0
Mtp:   0.d0
PDE 1999 01 01 00 00 00.00 67000 67000 -25000 4.2 4.2 hom_explosion
event name:       homog_test
time shift:     0.0000
half-duration    1000000
latorUTM:       0.000128
longorUTM:      .02200000000000000000
depth:          -.00040000000000000000
Mrr:   1.d0
Mtt:   1.d0
Mpp:   1.d0
Mrt:   0.d0
Mrp:   0.d0
Mtp:   0.d0
PDE 1999 01 01 00 00 00.00 67000 67000 -25000 4.2 4.2 hom_explosion
event name:       homog_test
time shift:     0.0000
half-duration    1000000
latorUTM:       0.000128
longorUTM:      .02280000000000000000
depth:          -.00040000000000000000
Mrr:   1.d0
Mtt:   1.d0
Mpp:   1.d0
Mrt:   0.d0
Mrp:   0.d0
Mtp:   0.d0
PDE 1999 01 01 00 00 00.00 67000 67000 -25000 4.2 4.2 hom_explosion
event name:       homog_test
time shift:     0.0000
half-duration    1000000
latorUTM:       0.000128
longorUTM:      .02360000000000000000
depth:          -.00040000000000000000
Mrr:   1.d0
Mtt:   1.d0
Mpp:   1.d0
Mrt:   0.d0
Mrp:   0.d0
Mtp:   0.d0
PDE 1999 01 01 00 00 00.00 67000 67000 -25000 4.2 4.2 hom_explosion
event name:       homog_test
time shift:     0.0000
half-duration    1000000
latorUTM:       0.000128
longorUTM:      .02440000000000000000
depth:          -.00040000000000000000
Mrr:   1.d0
Mtt:   1.d0
Mpp:   1.d0
Mrt:   0.d0
Mrp:   0.d0
Mtp:   0.d0
PDE 1999 01 01 00 00 00.00 67000 67000 -25000 4.2 4.2 hom_explosion
event name:       homog_test
time shift:     0.0000
half-duration    1000000
latorUTM:       0.000128
longorUTM:      .02520000000000000000
depth:          -.00040000000000000000
Mrr:   1.d0
Mtt:   1.d0
Mpp:   1.d0
Mrt:   0.d0
Mrp:   0.d0
Mtp:   0.d0
PDE 1999 01 01 00 00 00.00 67000 67000 -25000 4.2 4.2 hom_explosion
event name:       homog_test
time shift:     0.0000
half-duration    1000000
latorUTM:       0.000128
longorUTM:      .00040000000000000000
depth:          -.00120000000000000000
Mrr:   1.d0
Mtt:   1.d0
Mpp:   1.d0
Mrt:   0.d0
Mrp:   0.d0
Mtp:   0.d0
PDE 1999 01 01 00 00 00.00 67000 67000 -25000 4.2 4.2 hom_explosion
event name:       homog_test
time shift:     0.0000
half-duration    1000000
latorUTM:       0.000128
longorUTM:      .00120000000000000000
depth:          -.00120000000000000000
Mrr:   1.d0
Mtt:   1.d0
Mpp:   1.d0
Mrt:   0.d0
Mrp:   0.d0
Mtp:   0.d0
PDE 1999 01 01 00 00 00.00 67000 67000 -25000 4.2 4.2 hom_explosion
event name:       homog_test
time shift:     0.0000
half-duration    1000000
latorUTM:       0.000128
longorUTM:      .00200000000000000000
depth:          -.00120000000000000000
Mrr:   1.d0
Mtt:   1.d0
Mpp:   1.d0
Mrt:   0.d0
Mrp:   0.d0
Mtp:   0.d0
PDE 1999 01 01 00 00 00.00 67000 67000 -25000 4.2 4.2 hom_explosion
event name:       homog_test
time shift:     0.0000
half-duration    1000000
latorUTM:       0.000128
longorUTM:      .00280000000000000000
depth:          -.00120000000000000000
Mrr:   1.d0
Mtt:   1.d0
Mpp:   1.d0
Mrt:   0.d0
Mrp:   0.d0
Mtp:   0.d0
PDE 1999 01 01 00 00 00.00 67000 67000 -25000 4.2 4.2 hom_explosion
event name:       homog_test
time shift:     0.0000
half-duration    1000000
latorUTM:       0.000128
longorUTM:      .00360000000000000000
depth:          -.00120000000000000000
Mrr:   1.d0
Mtt:   1.d0
Mpp:   1.d0
Mrt:   0.d0
Mrp:   0.d0
Mtp:   0.d0
PDE 1999 01 01 00 00 00.00 67000 67000 -25000 4.2 4.2 hom_explosion
event name:       homog_test
time shift:     0.0000
half-duration    1000000
latorUTM:       0.000128
longorUTM:      .00440000000000000000
depth:          -.00120000000000000000
Mrr:   1.d0
Mtt:   1.d0
Mpp:   1.d0
Mrt:   0.d0
Mrp:   0.d0
Mtp:   0.d0
PDE 1999 01 01 00 00 00.00 67000 67000 -25000 4.2 4.2 hom_explosion
event name:       homog_test
time shift:     0.0000
half-duration    1000000
latorUTM:       0.000128
longorUTM:      .00520000000000000000
depth:          -.00120000000000000000
Mrr:   1.d0
Mtt:   1.d0
Mpp:   1.d0
Mrt:   0.d0
Mrp:   0.d0
Mtp:   0.d0
PDE 1999 01 01 00 00 00.00 67000 67000 -25000 4.2 4.2 hom_explosion
event name:       homog_test
time shift:     0.0000
half-duration    1000000
latorUTM:       0.000128
longorUTM:      .00600000000000000000
depth:          -.00120000000000000000
Mrr:   1.d0
Mtt:   1.d0
Mpp:   1.d0
Mrt:   0.d0
Mrp:   0.d0
Mtp:   0.d0
PDE 1999 01 01 00 00 00.00 67000 67000 -25000 4.2 4.2 hom_explosion
event name:       homog_test
time shift:     0.0000
half-duration    1000000
latorUTM:       0.000128
longorUTM:      .00680000000000000000
depth:          -.00120000000000000000
Mrr:   1.d0
Mtt:   1.d0
Mpp:   1.d0
Mrt:   0.d0
Mrp:   0.d0
Mtp:   0.d0
PDE 1999 01 01 00 00 00.00 67000 67000 -25000 4.2 4.2 hom_explosion
event name:       homog_test
time shift:     0.0000
half-duration    1000000
latorUTM:       0.000128
longorUTM:      .00760000000000000000
depth:          -.00120000000000000000
Mrr:   1.d0
Mtt:   1.d0
Mpp:   1.d0
Mrt:   0.d0
Mrp:   0.d0
Mtp:   0.d0
PDE 1999 01 01 00 00 00.00 67000 67000 -25000 4.2 4.2 hom_explosion
event name:       homog_test
time shift:     0.0000
half-duration    1000000
latorUTM:       0.000128
longorUTM:      .00840000000000000000
depth:          -.00120000000000000000
Mrr:   1.d0
Mtt:   1.d0
Mpp:   1.d0
Mrt:   0.d0
Mrp:   0.d0
Mtp:   0.d0
PDE 1999 01 01 00 00 00.00 67000 67000 -25000 4.2 4.2 hom_explosion
event name:       homog_test
time shift:     0.0000
half-duration    1000000
latorUTM:       0.000128
longorUTM:      .00920000000000000000
depth:          -.00120000000000000000
Mrr:   1.d0
Mtt:   1.d0
Mpp:   1.d0
Mrt:   0.d0
Mrp:   0.d0
Mtp:   0.d0
PDE 1999 01 01 00 00 00.00 67000 67000 -25000 4.2 4.2 hom_explosion
event name:       homog_test
time shift:     0.0000
half-duration    1000000
latorUTM:       0.000128
longorUTM:      .01000000000000000000
depth:          -.00120000000000000000
Mrr:   1.d0
Mtt:   1.d0
Mpp:   1.d0
Mrt:   0.d0
Mrp:   0.d0
Mtp:   0.d0
PDE 1999 01 01 00 00 00.00 67000 67000 -25000 4.2 4.2 hom_explosion
event name:       homog_test
time shift:     0.0000
half-duration    1000000
latorUTM:       0.000128
longorUTM:      .01080000000000000000
depth:          -.00120000000000000000
Mrr:   1.d0
Mtt:   1.d0
Mpp:   1.d0
Mrt:   0.d0
Mrp:   0.d0
Mtp:   0.d0
PDE 1999 01 01 00 00 00.00 67000 67000 -25000 4.2 4.2 hom_explosion
event name:       homog_test
time shift:     0.0000
half-duration    1000000
latorUTM:       0.000128
longorUTM:      .01160000000000000000
depth:          -.00120000000000000000
Mrr:   1.d0
Mtt:   1.d0
Mpp:   1.d0
Mrt:   0.d0
Mrp:   0.d0
Mtp:   0.d0
PDE 1999 01 01 00 00 00.00 67000 67000 -25000 4.2 4.2 hom_explosion
event name:       homog_test
time shift:     0.0000
half-duration    1000000
latorUTM:       0.000128
longorUTM:      .01240000000000000000
depth:          -.00120000000000000000
Mrr:   1.d0
Mtt:   1.d0
Mpp:   1.d0
Mrt:   0.d0
Mrp:   0.d0
Mtp:   0.d0
PDE 1999 01 01 00 00 00.00 67000 67000 -25000 4.2 4.2 hom_explosion
event name:       homog_test
time shift:     0.0000
half-duration    1000000
latorUTM:       0.000128
longorUTM:      .01320000000000000000
depth:          -.00120000000000000000
Mrr:   1.d0
Mtt:   1.d0
Mpp:   1.d0
Mrt:   0.d0
Mrp:   0.d0
Mtp:   0.d0
PDE 1999 01 01 00 00 00.00 67000 67000 -25000 4.2 4.2 hom_explosion
event name:       homog_test
time shift:     0.0000
half-duration    1000000
latorUTM:       0.000128
longorUTM:      .01400000000000000000
depth:          -.00120000000000000000
Mrr:   1.d0
Mtt:   1.d0
Mpp:   1.d0
Mrt:   0.d0
Mrp:   0.d0
Mtp:   0.d0
PDE 1999 01 01 00 00 00.00 67000 67000 -25000 4.2 4.2 hom_explosion
event name:       homog_test
time shift:     0.0000
half-duration    1000000
latorUTM:       0.000128
longorUTM:      .01480000000000000000
depth:          -.00120000000000000000
Mrr:   1.d0
Mtt:   1.d0
Mpp:   1.d0
Mrt:   0.d0
Mrp:   0.d0
Mtp:   0.d0
PDE 1999 01 01 00 00 00.00 67000 67000 -25000 4.2 4.2 hom_explosion
event name:       homog_test
time shift:     0.0000
half-duration    1000000
latorUTM:       0.000128
longorUTM:      .01560000000000000000
depth:          -.00120000000000000000
Mrr:   1.d0
Mtt:   1.d0
Mpp:   1.d0
Mrt:   0.d0
Mrp:   0.d0
Mtp:   0.d0
PDE 1999 01 01 00 00 00.00 67000 67000 -25000 4.2 4.2 hom_explosion
event name:       homog_test
time shift:     0.0000
half-duration    1000000
latorUTM:       0.000128
longorUTM:      .01640000000000000000
depth:          -.00120000000000000000
Mrr:   1.d0
Mtt:   1.d0
Mpp:   1.d0
Mrt:   0.d0
Mrp:   0.d0
Mtp:   0.d0
PDE 1999 01 01 00 00 00.00 67000 67000 -25000 4.2 4.2 hom_explosion
event name:       homog_test
time shift:     0.0000
half-duration    1000000
latorUTM:       0.000128
longorUTM:      .01720000000000000000
depth:          -.00120000000000000000
Mrr:   1.d0
Mtt:   1.d0
Mpp:   1.d0
Mrt:   0.d0
Mrp:   0.d0
Mtp:   0.d0
PDE 1999 01 01 00 00 00.00 67000 67000 -25000 4.2 4.2 hom_explosion
event name:       homog_test
time shift:     0.0000
half-duration    1000000
latorUTM:       0.000128
longorUTM:      .01800000000000000000
depth:          -.00120000000000000000
Mrr:   1.d0
Mtt:   1.d0
Mpp:   1.d0
Mrt:   0.d0
Mrp:   0.d0
Mtp:   0.d0
PDE 1999 01 01 00 00 00.00 67000 67000 -25000 4.2 4.2 hom_explosion
event name:       homog_test
time shift:     0.0000
half-duration    1000000
latorUTM:       0.000128
longorUTM:      .01880000000000000000
depth:          -.00120000000000000000
Mrr:   1.d0
Mtt:   1.d0
Mpp:   1.d0
Mrt:   0.d0
Mrp:   0.d0
Mtp:   0.d0
PDE 1999 01 01 00 00 00.00 67000 67000 -25000 4.2 4.2 hom_explosion
event name:       homog_test
time shift:     0.0000
half-duration    1000000
latorUTM:       0.000128
longorUTM:      .01960000000000000000
depth:          -.00120000000000000000
Mrr:   1.d0
Mtt:   1.d0
Mpp:   1.d0
Mrt:   0.d0
Mrp:   0.d0
Mtp:   0.d0
PDE 1999 01 01 00 00 00.00 67000 67000 -25000 4.2 4.2 hom_explosion
event name:       homog_test
time shift:     0.0000
half-duration    1000000
latorUTM:       0.000128
longorUTM:      .02040000000000000000
depth:          -.00120000000000000000
Mrr:   1.d0
Mtt:   1.d0
Mpp:   1.d0
Mrt:   0.d0
Mrp:   0.d0
Mtp:   0.d0
PDE 1999 01 01 00 00 00.00 67000 67000 -25000 4.2 4.2 hom_explosion
event name:       homog_test
time shift:     0.0000
half-duration    1000000
latorUTM:       0.000128
longorUTM:      .02120000000000000000
depth:          -.00120000000000000000
Mrr:   1.d0
Mtt:   1.d0
Mpp:   1.d0
Mrt:   0.d0
Mrp:   0.d0
Mtp:   0.d0
PDE 1999 01 01 00 00 00.00 67000 67000 -25000 4.2 4.2 hom_explosion
event name:       homog_test
time shift:     0.0000
half-duration    1000000
latorUTM:       0.000128
longorUTM:      .02200000000000000000
depth:          -.00120000000000000000
Mrr:   1.d0
Mtt:   1.d0
Mpp:   1.d0
Mrt:   0.d0
Mrp:   0.d0
Mtp:   0.d0
PDE 1999 01 01 00 00 00.00 67000 67000 -25000 4.2 4.2 hom_explosion
event name:       homog_test
time shift:     0.0000
half-duration    1000000
latorUTM:       0.000128
longorUTM:      .02280000000000000000
depth:          -.00120000000000000000
Mrr:   1.d0
Mtt:   1.d0
Mpp:   1.d0
Mrt:   0.d0
Mrp:   0.d0
Mtp:   0.d0
PDE 1999 01 01 00 00 00.00 67000 67000 -25000 4.2 4.2 hom_explosion
event name:       homog_test
time shift:     0.0000
half-duration    1000000
latorUTM:       0.000128
longorUTM:      .02360000000000000000
depth:          -.00120000000000000000
Mrr:   1.d0
Mtt:   1.d0
Mpp:   1.d0
Mrt:   0.d0
Mrp:   0.d0
Mtp:   0.d0
PDE 1999 01 01 00 00 00.00 67000 67000 -25000 4.2 4.2 hom_explosion
event name:       homog_test
time shift:     0.0000
half-duration    1000000
latorUTM:       0.000128
longorUTM:      .02440000000000000000
depth:          -.00120000000000000000
Mrr:   1.d0
Mtt:   1.d0
Mpp:   1.d0
Mrt:   0.d0
Mrp:   0.d0
Mtp:   0.d0
PDE 1999 01 01 00 00 00.00 67000 67000 -25000 4.2 4.2 hom_explosion
event name:       homog_test
time shift:     0.0000
half-duration    1000000
latorUTM:       0.000128
longorUTM:      .02520000000000000000
depth:          -.00120000000000000000
Mrr:   1.d0
Mtt:   1.d0
Mpp:   1.d0
Mrt:   0.d0
Mrp:   0.d0
Mtp:   0.d0
PDE 1999 01 01 00 00 00.00 67000 67000 -25000 4.2 4.2 hom_explosion
event name:       homog_test
time shift:     0.0000
half-duration    1000000
latorUTM:       0.000128
longorUTM:      .00040000000000000000
depth:          -.00200000000000000000
Mrr:   1.d0
Mtt:   1.d0
Mpp:   1.d0
Mrt:   0.d0
Mrp:   0.d0
Mtp:   0.d0
PDE 1999 01 01 00 00 00.00 67000 67000 -25000 4.2 4.2 hom_explosion
event name:       homog_test
time shift:     0.0000
half-duration    1000000
latorUTM:       0.000128
longorUTM:      .00120000000000000000
depth:          -.00200000000000000000
Mrr:   1.d0
Mtt:   1.d0
Mpp:   1.d0
Mrt:   0.d0
Mrp:   0.d0
Mtp:   0.d0
PDE 1999 01 01 00 00 00.00 67000 67000 -25000 4.2 4.2 hom_explosion
event name:       homog_test
time shift:     0.0000
half-duration    1000000
latorUTM:       0.000128
longorUTM:      .00200000000000000000
depth:          -.00200000000000000000
Mrr:   1.d0
Mtt:   1.d0
Mpp:   1.d0
Mrt:   0.d0
Mrp:   0.d0
Mtp:   0.d0
PDE 1999 01 01 00 00 00.00 67000 67000 -25000 4.2 4.2 hom_explosion
event name:       homog_test
time shift:     0.0000
half-duration    1000000
latorUTM:       0.000128
longorUTM:      .00280000000000000000
depth:          -.00200000000000000000
Mrr:   1.d0
Mtt:   1.d0
Mpp:   1.d0
Mrt:   0.d0
Mrp:   0.d0
Mtp:   0.d0
PDE 1999 01 01 00 00 00.00 67000 67000 -25000 4.2 4.2 hom_explosion
event name:       homog_test
time shift:     0.0000
half-duration    1000000
latorUTM:       0.000128
longorUTM:      .00360000000000000000
depth:          -.00200000000000000000
Mrr:   1.d0
Mtt:   1.d0
Mpp:   1.d0
Mrt:   0.d0
Mrp:   0.d0
Mtp:   0.d0
PDE 1999 01 01 00 00 00.00 67000 67000 -25000 4.2 4.2 hom_explosion
event name:       homog_test
time shift:     0.0000
half-duration    1000000
latorUTM:       0.000128
longorUTM:      .00440000000000000000
depth:          -.00200000000000000000
Mrr:   1.d0
Mtt:   1.d0
Mpp:   1.d0
Mrt:   0.d0
Mrp:   0.d0
Mtp:   0.d0
PDE 1999 01 01 00 00 00.00 67000 67000 -25000 4.2 4.2 hom_explosion
event name:       homog_test
time shift:     0.0000
half-duration    1000000
latorUTM:       0.000128
longorUTM:      .00520000000000000000
depth:          -.00200000000000000000
Mrr:   1.d0
Mtt:   1.d0
Mpp:   1.d0
Mrt:   0.d0
Mrp:   0.d0
Mtp:   0.d0
PDE 1999 01 01 00 00 00.00 67000 67000 -25000 4.2 4.2 hom_explosion
event name:       homog_test
time shift:     0.0000
half-duration    1000000
latorUTM:       0.000128
longorUTM:      .00600000000000000000
depth:          -.00200000000000000000
Mrr:   1.d0
Mtt:   1.d0
Mpp:   1.d0
Mrt:   0.d0
Mrp:   0.d0
Mtp:   0.d0
PDE 1999 01 01 00 00 00.00 67000 67000 -25000 4.2 4.2 hom_explosion
event name:       homog_test
time shift:     0.0000
half-duration    1000000
latorUTM:       0.000128
longorUTM:      .00680000000000000000
depth:          -.00200000000000000000
Mrr:   1.d0
Mtt:   1.d0
Mpp:   1.d0
Mrt:   0.d0
Mrp:   0.d0
Mtp:   0.d0
PDE 1999 01 01 00 00 00.00 67000 67000 -25000 4.2 4.2 hom_explosion
event name:       homog_test
time shift:     0.0000
half-duration    1000000
latorUTM:       0.000128
longorUTM:      .00760000000000000000
depth:          -.00200000000000000000
Mrr:   1.d0
Mtt:   1.d0
Mpp:   1.d0
Mrt:   0.d0
Mrp:   0.d0
Mtp:   0.d0
PDE 1999 01 01 00 00 00.00 67000 67000 -25000 4.2 4.2 hom_explosion
event name:       homog_test
time shift:     0.0000
half-duration    1000000
latorUTM:       0.000128
longorUTM:      .00840000000000000000
depth:          -.00200000000000000000
Mrr:   1.d0
Mtt:   1.d0
Mpp:   1.d0
Mrt:   0.d0
Mrp:   0.d0
Mtp:   0.d0
PDE 1999 01 01 00 00 00.00 67000 67000 -25000 4.2 4.2 hom_explosion
event name:       homog_test
time shift:     0.0000
half-duration    1000000
latorUTM:       0.000128
longorUTM:      .00920000000000000000
depth:          -.00200000000000000000
Mrr:   1.d0
Mtt:   1.d0
Mpp:   1.d0
Mrt:   0.d0
Mrp:   0.d0
Mtp:   0.d0
PDE 1999 01 01 00 00 00.00 67000 67000 -25000 4.2 4.2 hom_explosion
event name:       homog_test
time shift:     0.0000
half-duration    1000000
latorUTM:       0.000128
longorUTM:      .01000000000000000000
depth:          -.00200000000000000000
Mrr:   1.d0
Mtt:   1.d0
Mpp:   1.d0
Mrt:   0.d0
Mrp:   0.d0
Mtp:   0.d0
PDE 1999 01 01 00 00 00.00 67000 67000 -25000 4.2 4.2 hom_explosion
event name:       homog_test
time shift:     0.0000
half-duration    1000000
latorUTM:       0.000128
longorUTM:      .01080000000000000000
depth:          -.00200000000000000000
Mrr:   1.d0
Mtt:   1.d0
Mpp:   1.d0
Mrt:   0.d0
Mrp:   0.d0
Mtp:   0.d0
PDE 1999 01 01 00 00 00.00 67000 67000 -25000 4.2 4.2 hom_explosion
event name:       homog_test
time shift:     0.0000
half-duration    1000000
latorUTM:       0.000128
longorUTM:      .01160000000000000000
depth:          -.00200000000000000000
Mrr:   1.d0
Mtt:   1.d0
Mpp:   1.d0
Mrt:   0.d0
Mrp:   0.d0
Mtp:   0.d0
PDE 1999 01 01 00 00 00.00 67000 67000 -25000 4.2 4.2 hom_explosion
event name:       homog_test
time shift:     0.0000
half-duration    1000000
latorUTM:       0.000128
longorUTM:      .01240000000000000000
depth:          -.00200000000000000000
Mrr:   1.d0
Mtt:   1.d0
Mpp:   1.d0
Mrt:   0.d0
Mrp:   0.d0
Mtp:   0.d0
PDE 1999 01 01 00 00 00.00 67000 67000 -25000 4.2 4.2 hom_explosion
event name:       homog_test
time shift:     0.0000
half-duration    1000000
latorUTM:       0.000128
longorUTM:      .01320000000000000000
depth:          -.00200000000000000000
Mrr:   1.d0
Mtt:   1.d0
Mpp:   1.d0
Mrt:   0.d0
Mrp:   0.d0
Mtp:   0.d0
PDE 1999 01 01 00 00 00.00 67000 67000 -25000 4.2 4.2 hom_explosion
event name:       homog_test
time shift:     0.0000
half-duration    1000000
latorUTM:       0.000128
longorUTM:      .01400000000000000000
depth:          -.00200000000000000000
Mrr:   1.d0
Mtt:   1.d0
Mpp:   1.d0
Mrt:   0.d0
Mrp:   0.d0
Mtp:   0.d0
PDE 1999 01 01 00 00 00.00 67000 67000 -25000 4.2 4.2 hom_explosion
event name:       homog_test
time shift:     0.0000
half-duration    1000000
latorUTM:       0.000128
longorUTM:      .01480000000000000000
depth:          -.00200000000000000000
Mrr:   1.d0
Mtt:   1.d0
Mpp:   1.d0
Mrt:   0.d0
Mrp:   0.d0
Mtp:   0.d0
PDE 1999 01 01 00 00 00.00 67000 67000 -25000 4.2 4.2 hom_explosion
event name:       homog_test
time shift:     0.0000
half-duration    1000000
latorUTM:       0.000128
longorUTM:      .01560000000000000000
depth:          -.00200000000000000000
Mrr:   1.d0
Mtt:   1.d0
Mpp:   1.d0
Mrt:   0.d0
Mrp:   0.d0
Mtp:   0.d0
PDE 1999 01 01 00 00 00.00 67000 67000 -25000 4.2 4.2 hom_explosion
event name:       homog_test
time shift:     0.0000
half-duration    1000000
latorUTM:       0.000128
longorUTM:      .01640000000000000000
depth:          -.00200000000000000000
Mrr:   1.d0
Mtt:   1.d0
Mpp:   1.d0
Mrt:   0.d0
Mrp:   0.d0
Mtp:   0.d0
PDE 1999 01 01 00 00 00.00 67000 67000 -25000 4.2 4.2 hom_explosion
event name:       homog_test
time shift:     0.0000
half-duration    1000000
latorUTM:       0.000128
longorUTM:      .01720000000000000000
depth:          -.00200000000000000000
Mrr:   1.d0
Mtt:   1.d0
Mpp:   1.d0
Mrt:   0.d0
Mrp:   0.d0
Mtp:   0.d0
PDE 1999 01 01 00 00 00.00 67000 67000 -25000 4.2 4.2 hom_explosion
event name:       homog_test
time shift:     0.0000
half-duration    1000000
latorUTM:       0.000128
longorUTM:      .01800000000000000000
depth:          -.00200000000000000000
Mrr:   1.d0
Mtt:   1.d0
Mpp:   1.d0
Mrt:   0.d0
Mrp:   0.d0
Mtp:   0.d0
PDE 1999 01 01 00 00 00.00 67000 67000 -25000 4.2 4.2 hom_explosion
event name:       homog_test
time shift:     0.0000
half-duration    1000000
latorUTM:       0.000128
longorUTM:      .01880000000000000000
depth:          -.00200000000000000000
Mrr:   1.d0
Mtt:   1.d0
Mpp:   1.d0
Mrt:   0.d0
Mrp:   0.d0
Mtp:   0.d0
PDE 1999 01 01 00 00 00.00 67000 67000 -25000 4.2 4.2 hom_explosion
event name:       homog_test
time shift:     0.0000
half-duration    1000000
latorUTM:       0.000128
longorUTM:      .01960000000000000000
depth:          -.00200000000000000000
Mrr:   1.d0
Mtt:   1.d0
Mpp:   1.d0
Mrt:   0.d0
Mrp:   0.d0
Mtp:   0.d0
PDE 1999 01 01 00 00 00.00 67000 67000 -25000 4.2 4.2 hom_explosion
event name:       homog_test
time shift:     0.0000
half-duration    1000000
latorUTM:       0.000128
longorUTM:      .02040000000000000000
depth:          -.00200000000000000000
Mrr:   1.d0
Mtt:   1.d0
Mpp:   1.d0
Mrt:   0.d0
Mrp:   0.d0
Mtp:   0.d0
PDE 1999 01 01 00 00 00.00 67000 67000 -25000 4.2 4.2 hom_explosion
event name:       homog_test
time shift:     0.0000
half-duration    1000000
latorUTM:       0.000128
longorUTM:      .02120000000000000000
depth:          -.00200000000000000000
Mrr:   1.d0
Mtt:   1.d0
Mpp:   1.d0
Mrt:   0.d0
Mrp:   0.d0
Mtp:   0.d0
PDE 1999 01 01 00 00 00.00 67000 67000 -25000 4.2 4.2 hom_explosion
event name:       homog_test
time shift:     0.0000
half-duration    1000000
latorUTM:       0.000128
longorUTM:      .02200000000000000000
depth:          -.00200000000000000000
Mrr:   1.d0
Mtt:   1.d0
Mpp:   1.d0
Mrt:   0.d0
Mrp:   0.d0
Mtp:   0.d0
PDE 1999 01 01 00 00 00.00 67000 67000 -25000 4.2 4.2 hom_explosion
event name:       homog_test
time shift:     0.0000
half-duration    1000000
latorUTM:       0.000128
longorUTM:      .02280000000000000000
depth:          -.00200000000000000000
Mrr:   1.d0
Mtt:   1.d0
Mpp:   1.d0
Mrt:   0.d0
Mrp:   0.d0
Mtp:   0.d0
PDE 1999 01 01 00 00 00.00 67000 67000 -25000 4.2 4.2 hom_explosion
event name:       homog_test
time shift:     0.0000
half-duration    1000000
latorUTM:       0.000128
longorUTM:      .02360000000000000000
depth:          -.00200000000000000000
Mrr:   1.d0
Mtt:   1.d0
Mpp:   1.d0
Mrt:   0.d0
Mrp:   0.d0
Mtp:   0.d0